<?xml version="1.0" encoding="UTF-8"?>

<!-- generated on 2021-08-05 20:32:22 by Eclipse SUMO netconvert Version 1.9.2
<configuration xmlns:xsi="http://www.w3.org/2001/XMLSchema-instance" xsi:noNamespaceSchemaLocation="http://sumo.dlr.de/xsd/netconvertConfiguration.xsd">

    <input>
        <sumo-net-file value="ultra/scenarios/pool/experiment_pool/behavior_race/70kmh/map.net.xml"/>
    </input>

    <output>
        <output-file value="ultra/scenarios/pool/experiment_pool/behavior_race/70kmh/shifted_map-AUTOGEN.net.xml"/>
    </output>

    <processing>
        <geometry.min-radius.fix.railways value="false"/>
        <geometry.max-grade.fix value="false"/>
        <offset.disable-normalization value="false"/>
        <lefthand value="false"/>
    </processing>

    <junctions>
        <no-turnarounds value="true"/>
        <junctions.corner-detail value="5"/>
        <junctions.limit-turn-speed value="-1"/>
        <rectangular-lane-cut value="false"/>
    </junctions>

    <pedestrian>
        <walkingareas value="false"/>
    </pedestrian>

    <report>
        <aggregate-warnings value="5"/>
    </report>

</configuration>
-->

<net version="1.9" junctionCornerDetail="5" xmlns:xsi="http://www.w3.org/2001/XMLSchema-instance" xsi:noNamespaceSchemaLocation="http://sumo.dlr.de/xsd/net_file.xsd">

    <location netOffset="142.32,-96.05" convBoundary="0.00,0.00,417.63,0.28" origBoundary="-10000000000.00,-10000000000.00,10000000000.00,10000000000.00" projParameter="!"/>

    <edge id=":gneJ10_0" function="internal">
        <lane id=":gneJ10_0_0" index="0" speed="19.44" length="0.30" shape="73.98,30.40 73.73,30.40"/>
        <lane id=":gneJ10_0_1" index="1" speed="19.44" length="0.30" shape="73.98,27.20 73.72,27.20"/>
        <lane id=":gneJ10_0_2" index="2" speed="19.44" length="0.30" shape="73.98,24.00 73.71,24.00"/>
        <lane id=":gneJ10_0_3" index="3" speed="19.44" length="0.30" shape="73.98,20.80 73.70,20.80"/>
        <lane id=":gneJ10_0_4" index="4" speed="19.44" length="0.30" shape="73.98,17.60 73.69,17.60"/>
        <lane id=":gneJ10_0_5" index="5" speed="19.44" length="0.30" shape="73.98,14.40 73.67,14.40"/>
        <lane id=":gneJ10_0_6" index="6" speed="19.44" length="0.30" shape="73.98,11.20 73.66,11.20"/>
        <lane id=":gneJ10_0_7" index="7" speed="19.44" length="0.30" shape="73.98,8.00 73.65,8.00"/>
        <lane id=":gneJ10_0_8" index="8" speed="19.44" length="0.30" shape="73.98,4.80 73.64,4.80"/>
        <lane id=":gneJ10_0_9" index="9" speed="19.44" length="0.30" shape="73.98,1.60 73.62,1.60"/>
    </edge>

    <edge id="edge-east-EW" from="gneJ6" to="gneJ10" priority="-1">
        <lane id="edge-east-EW_0" index="0" speed="19.44" length="343.65" shape="417.63,30.45 73.98,30.40"/>
        <lane id="edge-east-EW_1" index="1" speed="19.44" length="343.65" shape="417.63,27.25 73.98,27.20"/>
        <lane id="edge-east-EW_2" index="2" speed="19.44" length="343.65" shape="417.63,24.05 73.98,24.00"/>
        <lane id="edge-east-EW_3" index="3" speed="19.44" length="343.65" shape="417.63,20.85 73.98,20.80"/>
        <lane id="edge-east-EW_4" index="4" speed="19.44" length="343.65" shape="417.63,17.65 73.98,17.60"/>
        <lane id="edge-east-EW_5" index="5" speed="19.44" length="343.65" shape="417.63,14.45 73.98,14.40"/>
        <lane id="edge-east-EW_6" index="6" speed="19.44" length="343.65" shape="417.63,11.25 73.98,11.20"/>
        <lane id="edge-east-EW_7" index="7" speed="19.44" length="343.65" shape="417.63,8.05 73.98,8.00"/>
        <lane id="edge-east-EW_8" index="8" speed="19.44" length="343.65" shape="417.63,4.85 73.98,4.80"/>
        <lane id="edge-east-EW_9" index="9" speed="19.44" length="343.65" shape="417.63,1.65 73.98,1.60"/>
    </edge>
    <edge id="edge-west-EW" from="gneJ10" to="gneJ16" priority="-1">
        <lane id="edge-west-EW_0" index="0" speed="19.44" length="73.62" shape="73.73,30.40 0.12,30.68"/>
        <lane id="edge-west-EW_1" index="1" speed="19.44" length="73.62" shape="73.72,27.20 0.10,27.48"/>
        <lane id="edge-west-EW_2" index="2" speed="19.44" length="73.62" shape="73.71,24.00 0.09,24.28"/>
        <lane id="edge-west-EW_3" index="3" speed="19.44" length="73.62" shape="73.70,20.80 0.08,21.08"/>
        <lane id="edge-west-EW_4" index="4" speed="19.44" length="73.62" shape="73.69,17.60 0.07,17.88"/>
        <lane id="edge-west-EW_5" index="5" speed="19.44" length="73.62" shape="73.67,14.40 0.05,14.68"/>
        <lane id="edge-west-EW_6" index="6" speed="19.44" length="73.62" shape="73.66,11.20 0.04,11.48"/>
        <lane id="edge-west-EW_7" index="7" speed="19.44" length="73.62" shape="73.65,8.00 0.03,8.28"/>
        <lane id="edge-west-EW_8" index="8" speed="19.44" length="73.62" shape="73.64,4.80 0.02,5.08"/>
        <lane id="edge-west-EW_9" index="9" speed="19.44" length="73.62" shape="73.62,1.60 0.01,1.88"/>
    </edge>

    <junction id="gneJ10" type="priority" x="73.80" y="0.00" incLanes="edge-east-EW_0 edge-east-EW_1 edge-east-EW_2 edge-east-EW_3 edge-east-EW_4 edge-east-EW_5 edge-east-EW_6 edge-east-EW_7 edge-east-EW_8 edge-east-EW_9" intLanes=":gneJ10_0_0 :gneJ10_0_1 :gneJ10_0_2 :gneJ10_0_3 :gneJ10_0_4 :gneJ10_0_5 :gneJ10_0_6 :gneJ10_0_7 :gneJ10_0_8 :gneJ10_0_9" shape="73.98,32.00 73.98,0.00 73.62,0.00 73.74,32.00">
        <request index="0" response="0000000000" foes="0000000000" cont="0"/>
        <request index="1" response="0000000000" foes="0000000000" cont="0"/>
        <request index="2" response="0000000000" foes="0000000000" cont="0"/>
        <request index="3" response="0000000000" foes="0000000000" cont="0"/>
        <request index="4" response="0000000000" foes="0000000000" cont="0"/>
        <request index="5" response="0000000000" foes="0000000000" cont="0"/>
        <request index="6" response="0000000000" foes="0000000000" cont="0"/>
        <request index="7" response="0000000000" foes="0000000000" cont="0"/>
        <request index="8" response="0000000000" foes="0000000000" cont="0"/>
        <request index="9" response="0000000000" foes="0000000000" cont="0"/>
    </junction>
    <junction id="gneJ16" type="dead_end" x="0.00" y="0.28" incLanes="edge-west-EW_0 edge-west-EW_1 edge-west-EW_2 edge-west-EW_3 edge-west-EW_4 edge-west-EW_5 edge-west-EW_6 edge-west-EW_7 edge-west-EW_8 edge-west-EW_9" intLanes="" shape="0.12,32.28 0.00,0.28"/>
    <junction id="gneJ6" type="dead_end" x="417.63" y="0.05" incLanes="" intLanes="" shape="417.63,0.05 417.63,32.05"/>

    <connection from="edge-east-EW" to="edge-west-EW" fromLane="0" toLane="0" via=":gneJ10_0_0" dir="s" state="M"/>
    <connection from="edge-east-EW" to="edge-west-EW" fromLane="1" toLane="1" via=":gneJ10_0_1" dir="s" state="M"/>
    <connection from="edge-east-EW" to="edge-west-EW" fromLane="2" toLane="2" via=":gneJ10_0_2" dir="s" state="M"/>
    <connection from="edge-east-EW" to="edge-west-EW" fromLane="3" toLane="3" via=":gneJ10_0_3" dir="s" state="M"/>
    <connection from="edge-east-EW" to="edge-west-EW" fromLane="4" toLane="4" via=":gneJ10_0_4" dir="s" state="M"/>
    <connection from="edge-east-EW" to="edge-west-EW" fromLane="5" toLane="5" via=":gneJ10_0_5" dir="s" state="M"/>
    <connection from="edge-east-EW" to="edge-west-EW" fromLane="6" toLane="6" via=":gneJ10_0_6" dir="s" state="M"/>
    <connection from="edge-east-EW" to="edge-west-EW" fromLane="7" toLane="7" via=":gneJ10_0_7" dir="s" state="M"/>
    <connection from="edge-east-EW" to="edge-west-EW" fromLane="8" toLane="8" via=":gneJ10_0_8" dir="s" state="M"/>
    <connection from="edge-east-EW" to="edge-west-EW" fromLane="9" toLane="9" via=":gneJ10_0_9" dir="s" state="M"/>

    <connection from=":gneJ10_0" to="edge-west-EW" fromLane="0" toLane="0" dir="s" state="M"/>
    <connection from=":gneJ10_0" to="edge-west-EW" fromLane="1" toLane="1" dir="s" state="M"/>
    <connection from=":gneJ10_0" to="edge-west-EW" fromLane="2" toLane="2" dir="s" state="M"/>
    <connection from=":gneJ10_0" to="edge-west-EW" fromLane="3" toLane="3" dir="s" state="M"/>
    <connection from=":gneJ10_0" to="edge-west-EW" fromLane="4" toLane="4" dir="s" state="M"/>
    <connection from=":gneJ10_0" to="edge-west-EW" fromLane="5" toLane="5" dir="s" state="M"/>
    <connection from=":gneJ10_0" to="edge-west-EW" fromLane="6" toLane="6" dir="s" state="M"/>
    <connection from=":gneJ10_0" to="edge-west-EW" fromLane="7" toLane="7" dir="s" state="M"/>
    <connection from=":gneJ10_0" to="edge-west-EW" fromLane="8" toLane="8" dir="s" state="M"/>
    <connection from=":gneJ10_0" to="edge-west-EW" fromLane="9" toLane="9" dir="s" state="M"/>

</net>
