<?xml version="1.0" encoding="UTF-8"?>

<!-- generated on 2021-08-05 20:32:22 by Eclipse SUMO netconvert Version 1.9.2
<configuration xmlns:xsi="http://www.w3.org/2001/XMLSchema-instance" xsi:noNamespaceSchemaLocation="http://sumo.dlr.de/xsd/netconvertConfiguration.xsd">

    <input>
        <sumo-net-file value="ultra/scenarios/pool/experiment_pool/2lane_curvy_t/70kmh/map.net.xml"/>
    </input>

    <output>
        <output-file value="ultra/scenarios/pool/experiment_pool/2lane_curvy_t/70kmh/shifted_map-AUTOGEN.net.xml"/>
    </output>

    <processing>
        <geometry.min-radius.fix.railways value="false"/>
        <geometry.max-grade.fix value="false"/>
        <offset.disable-normalization value="false"/>
        <lefthand value="false"/>
    </processing>

    <junctions>
        <no-turnarounds value="true"/>
        <junctions.corner-detail value="5"/>
        <junctions.limit-turn-speed value="-1"/>
        <rectangular-lane-cut value="false"/>
    </junctions>

    <pedestrian>
        <walkingareas value="false"/>
    </pedestrian>

    <report>
        <aggregate-warnings value="5"/>
    </report>

</configuration>
-->

<net version="1.9" junctionCornerDetail="5" xmlns:xsi="http://www.w3.org/2001/XMLSchema-instance" xsi:noNamespaceSchemaLocation="http://sumo.dlr.de/xsd/net_file.xsd">

    <location netOffset="114.42,185.99" convBoundary="0.00,0.00,424.07,183.34" origBoundary="-10000000000.00,-10000000000.00,10000000000.00,10000000000.00" projParameter="!"/>

    <edge id=":junction-intersection_0" function="internal">
        <lane id=":junction-intersection_0_0" index="0" speed="19.44" length="14.40" shape="222.00,184.75 207.61,184.76"/>
    </edge>
    <edge id=":junction-intersection_1" function="internal">
        <lane id=":junction-intersection_1_0" index="0" speed="16.66" length="5.92" shape="222.00,184.75 218.16,184.20 216.41,183.15"/>
    </edge>
    <edge id=":junction-intersection_6" function="internal">
        <lane id=":junction-intersection_6_0" index="0" speed="16.66" length="8.27" shape="216.41,183.15 215.41,182.55 213.75,179.80 213.20,175.95"/>
    </edge>
    <edge id=":junction-intersection_2" function="internal">
        <lane id=":junction-intersection_2_0" index="0" speed="16.66" length="9.04" shape="216.40,175.94 216.75,178.40 217.80,180.15 219.55,181.20 222.00,181.55"/>
    </edge>
    <edge id=":junction-intersection_3" function="internal">
        <lane id=":junction-intersection_3_0" index="0" speed="16.66" length="14.20" shape="216.40,175.94 215.85,179.80 214.21,182.55 211.46,184.20 207.61,184.76"/>
    </edge>
    <edge id=":junction-intersection_4" function="internal">
        <lane id=":junction-intersection_4_0" index="0" speed="16.66" length="9.03" shape="207.61,181.56 210.06,181.20 211.80,180.15 212.85,178.40 213.20,175.95"/>
    </edge>
    <edge id=":junction-intersection_5" function="internal">
        <lane id=":junction-intersection_5_0" index="0" speed="19.44" length="14.40" shape="207.61,181.56 222.00,181.55"/>
    </edge>

    <edge id="edge-east-EW" from="junction-east" to="junction-intersection" priority="1">
        <lane id="edge-east-EW_0" index="0" speed="19.44" length="202.07" shape="424.07,184.75 222.00,184.75"/>
    </edge>
    <edge id="edge-east-WE" from="junction-intersection" to="junction-east" priority="1" spreadType="center" shape="214.80,181.55 424.07,181.55">
        <lane id="edge-east-WE_0" index="0" speed="19.44" length="202.07" shape="222.00,181.55 424.07,181.55"/>
    </edge>
    <edge id="edge-south-NS" from="junction-intersection" to="junction-south" priority="-1" shape="214.81,183.15 214.74,144.52 217.05,113.66 229.32,93.50 247.46,80.32 266.40,75.18 276.12,67.72 286.79,44.57 286.61,0.00">
        <lane id="edge-south-NS_0" index="0" speed="13.89" length="210.33" shape="213.20,175.95 213.14,144.46 215.48,113.16 228.12,92.39 246.76,78.85 265.68,73.72 274.83,66.69 285.19,44.22 285.01,0.01"/>
    </edge>
    <edge id="edge-south-SN" from="junction-south" to="junction-intersection" priority="-1" shape="286.61,0.00 286.79,44.57 276.12,67.72 266.40,75.18 247.46,80.32 229.32,93.50 217.05,113.66 214.74,144.52 214.81,183.15">
        <lane id="edge-south-SN_0" index="0" speed="13.89" length="210.34" shape="288.21,-0.01 288.39,44.92 277.41,68.75 267.12,76.64 248.16,81.79 230.52,94.61 218.62,114.16 216.34,144.58 216.40,175.94"/>
    </edge>
    <edge id="edge-west-EW" from="junction-intersection" to="junction-west" priority="1">
        <lane id="edge-west-EW_0" index="0" speed="19.44" length="207.61" shape="207.61,184.76 0.00,184.94"/>
    </edge>
    <edge id="edge-west-WE" from="junction-west" to="junction-intersection" priority="1">
        <lane id="edge-west-WE_0" index="0" speed="19.44" length="207.61" shape="-0.00,181.74 207.61,181.56"/>
    </edge>

    <junction id="junction-east" type="dead_end" x="424.07" y="183.15" incLanes="edge-east-WE_0" intLanes="" shape="424.07,183.15 424.07,179.95 424.07,183.15"/>
    <junction id="junction-intersection" type="priority" x="214.81" y="183.15" incLanes="edge-east-EW_0 edge-south-SN_0 edge-west-WE_0" intLanes=":junction-intersection_0_0 :junction-intersection_6_0 :junction-intersection_2_0 :junction-intersection_3_0 :junction-intersection_4_0 :junction-intersection_5_0" shape="222.00,186.35 222.00,179.95 219.78,179.50 219.00,178.95 218.45,178.17 218.11,177.17 218.00,175.94 211.60,175.95 211.16,178.18 210.60,178.95 209.83,179.51 208.83,179.84 207.60,179.96 207.61,186.36" rightOfWay="edgePriority">
        <request index="0" response="000000" foes="001000" cont="0"/>
        <request index="1" response="110000" foes="111000" cont="1"/>
        <request index="2" response="100000" foes="100000" cont="0"/>
        <request index="3" response="100011" foes="100011" cont="0"/>
        <request index="4" response="000000" foes="000010" cont="0"/>
        <request index="5" response="000000" foes="001110" cont="0"/>
    </junction>
    <junction id="junction-south" type="dead_end" x="286.61" y="0.00" incLanes="edge-south-NS_0" intLanes="" shape="286.61,-0.00 283.41,0.01 286.61,-0.00"/>
    <junction id="junction-west" type="dead_end" x="0.00" y="183.34" incLanes="edge-west-EW_0" intLanes="" shape="-0.00,183.34 0.00,186.54 -0.00,183.34"/>

    <junction id=":junction-intersection_6_0" type="internal" x="216.41" y="183.15" incLanes=":junction-intersection_1_0 edge-west-WE_0" intLanes=":junction-intersection_3_0 :junction-intersection_4_0 :junction-intersection_5_0"/>

    <connection from="edge-east-EW" to="edge-west-EW" fromLane="0" toLane="0" via=":junction-intersection_0_0" dir="s" state="M"/>
    <connection from="edge-east-EW" to="edge-south-NS" fromLane="0" toLane="0" via=":junction-intersection_1_0" dir="l" state="m"/>
    <connection from="edge-south-SN" to="edge-east-WE" fromLane="0" toLane="0" via=":junction-intersection_2_0" dir="r" state="m"/>
    <connection from="edge-south-SN" to="edge-west-EW" fromLane="0" toLane="0" via=":junction-intersection_3_0" dir="l" state="m"/>
    <connection from="edge-west-WE" to="edge-south-NS" fromLane="0" toLane="0" via=":junction-intersection_4_0" dir="r" state="M"/>
    <connection from="edge-west-WE" to="edge-east-WE" fromLane="0" toLane="0" via=":junction-intersection_5_0" dir="s" state="M"/>

    <connection from=":junction-intersection_0" to="edge-west-EW" fromLane="0" toLane="0" dir="s" state="M"/>
    <connection from=":junction-intersection_1" to="edge-south-NS" fromLane="0" toLane="0" via=":junction-intersection_6_0" dir="l" state="m"/>
    <connection from=":junction-intersection_6" to="edge-south-NS" fromLane="0" toLane="0" dir="l" state="M"/>
    <connection from=":junction-intersection_2" to="edge-east-WE" fromLane="0" toLane="0" dir="r" state="M"/>
    <connection from=":junction-intersection_3" to="edge-west-EW" fromLane="0" toLane="0" dir="l" state="M"/>
    <connection from=":junction-intersection_4" to="edge-south-NS" fromLane="0" toLane="0" dir="r" state="M"/>
    <connection from=":junction-intersection_5" to="edge-east-WE" fromLane="0" toLane="0" dir="s" state="M"/>

</net>
